-------------------------------------------------------
          Amber 11 SANDER                              2010
          -------------------------------------------------------

  [-O]verwriting output

File Assignments:

 Here is the input file:

Implicit solvent initial heating mdin
 &cntrl
   imin=0, irest=0, ntx=1,
   ntpr=500, ntwx=500, nstlim=1000000,
   dt=0.002, ntt=3, tempi=0,
   temp0=280, gamma_ln=1.0, ig=-1,
   ntp=0, ntc=2, ntf=2, cut=1000,
   ntb=0, igb=8, ioutfm=1, nmropt=0,
 /

Note: ig = -1. Setting random seed based on wallclock time in microseconds
      and disabling the synchronization of random numbers between tasks
      to improve performance.

--------------------------------------------------------------------------------
   1.  RESOURCE   USE:
--------------------------------------------------------------------------------

 NATOM  =     304 NTYPES =      12 NBONH =     150 MBONA  =     160
 NTHETH =     346 MTHETA =     219 NPHIH =     678 MPHIA  =     552
 NHPARM =       0 NPARM  =       0 NNB   =    1701 NRES   =      20
 NBONA  =     160 NTHETA =     219 NPHIA =     552 NUMBND =      38
 NUMANG =      87 NPTRA  =      37 NATYP =      22 NPHB   =       0
 IFBOX  =       0 NMXRS  =      24 IFCAP =       0 NEXTRA =       0
 NCOPY  =       0

 Implicit solvent radii are H(N), salt-bridge modified Bondi radii (mbondi3)
 Replacing prmtop screening parameters with GBn2 (igb=8) values
--------------------------------------------------------------------------------
   2.  CONTROL  DATA  FOR  THE  RUN
--------------------------------------------------------------------------------

NASN

General flags:
     imin    =       0, nmropt  =       0

Nature and format of input:
     ntx     =       1, irest   =       0, ntrx    =       1

Nature and format of output:
     ntxo    =       1, ntpr    =     500, ntrx    =       1, ntwr    =     500
     iwrap   =       0, ntwx    =     500, ntwv    =       0, ntwe    =       0
     ioutfm  =       1, ntwprt  =       0, idecomp =       0, rbornstat=      0

Potential function:
     ntf     =       2, ntb     =       0, igb     =       8, nsnb    =      25
     ipol    =       0, gbsa    =       0, iesp    =       0
     dielc   =   1.00000, cut     =1000.00000, intdiel =   1.00000
     saltcon =   0.00000, offset  =   0.19514, surften =   0.00500
     rdt     =   0.00000, rgbmax  =  25.00000  extdiel =  78.50000
     alpb  =        0
     gbalphaH  =   0.78844, gbbetaH   =   0.79870,  gbgammaH  =    0.43733
     gbalphaC  =   0.73376, gbbetaC   =   0.50638,  gbgammaC  =    0.20584
     gbalphaN  =   0.50336, gbbetaN   =   0.31683,  gbgammaN  =    0.19292
     gbalphaOS =   0.86781, gbbetaOS  =   0.87664,  gbgammaOS =    0.38788
     gbalphaP  =   1.00000, gbbetaP   =   0.80000,  gbgammaP  =    4.85100

Frozen or restrained atoms:
     ibelly  =       0, ntr     =       0

Molecular dynamics:
     nstlim  =   1000000, nscm    =      1000, nrespa  =         1
     t       =   0.00000, dt      =   0.00200, vlimit  =  -1.00000

Langevin dynamics temperature regulation:
     ig      =  981538
     temp0   = 280.00000, tempi   =   0.00000, gamma_ln=   1.00000

SHAKE:
     ntc     =       2, jfastw  =       0
     tol     =   0.00001

--------------------------------------------------------------------------------
   3.  ATOMIC COORDINATES AND VELOCITIES
--------------------------------------------------------------------------------

NASN
 begin time read from input coords =     0.000 ps

 Number of triangulated 3-point waters found:        0

--------------------------------------------------------------------------------
   4.  RESULTS
 NSTEP =        0   TIME(PS) =       0.000  TEMP(K) =     0.00  PRESS =     0.0
 Etot   =      -807.3432  EKtot   =         0.0000  EPtot      =      -807.3432
 BOND   =        12.1006  ANGLE   =        39.3102  DIHED      =       160.3325
 1-4 NB =        49.7419  1-4 EEL =       861.7446  VDWAALS    =       -53.4058
 EELEC  =     -1257.6446  EGB     =      -619.5225  RESTRAINT  =         0.0000
 ------------------------------------------------------------------------------

      A V E R A G E S   O V E R    2000 S T E P S

 NSTEP =  1000000   TIME(PS) =    2000.000  TEMP(K) =   279.91  PRESS =     0.0
 Etot   =      -401.2925  EKtot   =       211.9247  EPtot      =      -613.2173
 BOND   =        58.6841  ANGLE   =       153.7891  DIHED      =       207.7651
 1-4 NB =        61.7361  1-4 EEL =       886.8734  VDWAALS    =       -83.7724
 EELEC  =     -1282.5136  EGB     =      -615.7791  RESTRAINT  =         0.0000
 ------------------------------------------------------------------------------

      R M S  F L U C T U A T I O N S

 NSTEP =  1000000   TIME(PS) =    2000.000  TEMP(K) =    14.51  PRESS =     0.0
 Etot   =        18.5211  EKtot   =        10.9881  EPtot      =        15.1276
 BOND   =         6.4849  ANGLE   =         9.7531  DIHED      =         5.9677
 1-4 NB =         3.4365  1-4 EEL =        12.1931  VDWAALS    =        16.4217
 EELEC  =        22.4678  EGB     =        22.4142  RESTRAINT  =         0.0000
 ------------------------------------------------------------------------------
